generators/test/test_PV.glm
// $Id: Solar test$
//	Copyright (C) 2009 Battelle Memorial Institute

#set profiler=1
//#set threadcount=1;
#set relax_naming_rules=1

clock {
	timestamp '2010-01-01 6:00:00';
	stoptime '2010-01-01 12:00:00';
	timezone PST+8PDT;
	
}

module powerflow;
module generators;
module tape;
module climate;
module residential;
module powerflow{
	solver_method NR;
	//acceleration_factor 1.4;
	default_maximum_voltage_error 1e-9;
}


object climate{
	name MyClimate;
	tmyfile WA-Seattle.tmy2;
	//reader CsvReader;
	object recorder {
		file climate_out.csv;
		interval 3600;
		limit 120;
		property temperature,solar_global,solar_direct;
	};
};



// Create node objects


 
 object transformer_configuration {
      name trans_config_to_feeder;
      connect_type WYE_WYE;
      install_type PADMOUNT;
      primary_voltage 33000;
      secondary_voltage 2401.777;
      power_rating 5 MVA;
      impedance 0.00033+0.0022j;
 }
 
 object node {
      name network_node;
      bustype SWING;
      nominal_voltage 33000;
      phases ABCN;
}
 
 
 object transformer {
      name substation_transformer;
      from network_node;
      to 645;
      phases ABCN;
      configuration trans_config_to_feeder;
}; 

object node {     
      name 645;     
      phases ABCN;     
      voltage_A 2401.7771;     
      voltage_B -1200.8886-2080.000j;     
      voltage_C -1200.8886+2080.000j;     
      nominal_voltage 2401.7771;     
}  



object transformer {
       name CTTF_B_645;
       phases BS;
       from 645;
       to tn_B_645;
       configuration object transformer_configuration {
            connect_type SINGLE_PHASE_CENTER_TAPPED;
            install_type POLETOP;
            shunt_impedance 10000+10000j;
            primary_voltage 2401.777;
            secondary_voltage 120;
            powerB_rating 110 kVA;
            impedance 0.00033+0.0022j;
       };
       
}

 
object triplex_meter {
       name tn_B_645;
       phases BS;
       nominal_voltage 120;
       groupid House_Meter;
      object inverter {
       name inv_B_2_645;
       phases BS;
       generator_mode CONSTANT_PF;
       generator_status ONLINE;
       inverter_type PWM;
       power_factor 1.0;
        object recorder {	                	       
       	     	              	file Inv_out.csv;
       	     	                     interval 1;
       	     	                     property V_In;
	     	     	     };
             object solar {
              name sol_inv_B_2_645;
             generator_mode SUPPLY_DRIVEN;
             generator_status ONLINE;
             panel_type SINGLE_CRYSTAL_SILICON;
             efficiency 0.2;
             area 450;
             object recorder {	                	       
	     	              	file PV_out.csv;
	     	                      interval 1;
	     	                     // limit 86400;
	     	           	property V_Out;
	     	     	     };
	
            };
          
      };
      

}
	

	    
	
